Cenario_2/Tabelas_02/SE_VLN_Node_FP_0.92.Txt

LINE-GROUND and LINE-LINE VOLTAGES BY BUS & NODE

Bus       Node    VLN (kV)   Angle      pu     Base kV    Node-Node   VLL (kV)  Angle      pu

99 ...... 1       7.9252 /_   -0.2    0.9947    13.800        1-2     13.727 /_   29.8    0.9947
   -      2       7.9252 /_ -120.2    0.9947    13.800        2-3     13.727 /_  -90.2    0.9947
   -      3       7.9252 /_  119.8    0.9947    13.800        3-1     13.727 /_  149.8    0.9947
1 ....... 1       7.9245 /_   -0.2   0.99461    13.800        1-2     13.726 /_   29.8   0.99461
   -      2       7.9245 /_ -120.2   0.99461    13.800        2-3     13.726 /_  -90.2   0.99461
   -      3       7.9245 /_  119.8   0.99461    13.800        3-1     13.726 /_  149.8   0.99461
2 ....... 1        7.925 /_   -0.2   0.99468    13.800        1-2     13.727 /_   29.8   0.99468
   -      2        7.925 /_ -120.2   0.99468    13.800        2-3     13.727 /_  -90.2   0.99468
   -      3        7.925 /_  119.8   0.99468    13.800        3-1     13.727 /_  149.8   0.99468
6 ....... 1       7.9316 /_   -0.2    0.9955    13.800        1-2     13.738 /_   29.8    0.9955
   -      2       7.9316 /_ -120.2    0.9955    13.800        2-3     13.738 /_  -90.2    0.9955
   -      3       7.9316 /_  119.8    0.9955    13.800        3-1     13.738 /_  149.8    0.9955
7 ....... 1       7.9381 /_   -0.2   0.99632    13.800        1-2     13.749 /_   29.8   0.99632
   -      2       7.9381 /_ -120.2   0.99632    13.800        2-3     13.749 /_  -90.2   0.99632
   -      3       7.9381 /_  119.8   0.99632    13.800        3-1     13.749 /_  149.8   0.99632
5 ....... 1       7.9223 /_   -0.2   0.99434    13.800        1-2     13.722 /_   29.8   0.99434
   -      2       7.9223 /_ -120.2   0.99434    13.800        2-3     13.722 /_  -90.2   0.99434
   -      3       7.9223 /_  119.8   0.99434    13.800        3-1     13.722 /_  149.8   0.99434
3 ....... 1       7.9244 /_   -0.2    0.9946    13.800        1-2     13.726 /_   29.8    0.9946
   -      2       7.9244 /_ -120.2    0.9946    13.800        2-3     13.726 /_  -90.2    0.9946
   -      3       7.9244 /_  119.8    0.9946    13.800        3-1     13.726 /_  149.8    0.9946
4 ....... 1        7.924 /_   -0.2   0.99455    13.800        1-2     13.725 /_   29.8   0.99455
   -      2        7.924 /_ -120.2   0.99455    13.800        2-3     13.725 /_  -90.2   0.99455
   -      3        7.924 /_  119.8   0.99455    13.800        3-1     13.725 /_  149.8   0.99455
BT-TR1 .. 1      0.21359 /_  -32.4   0.97353     0.380        1-2    0.36994 /_   -2.4   0.97353
   -      2      0.21359 /_ -152.4   0.97353     0.380        2-3    0.36994 /_ -122.4   0.97353
   -      3      0.21359 /_   87.6   0.97353     0.380        3-1    0.36994 /_  117.6   0.97353
BT-TR2 .. 1       0.2136 /_  -32.4    0.9736     0.380        1-2    0.36997 /_   -2.4    0.9736
   -      2       0.2136 /_ -152.4    0.9736     0.380        2-3    0.36997 /_ -122.4    0.9736
   -      3       0.2136 /_   87.6    0.9736     0.380        3-1    0.36997 /_  117.6    0.9736
BT-TR3 .. 1      0.21358 /_  -32.4   0.97352     0.380        1-2    0.36994 /_   -2.4   0.97352
   -      2      0.21358 /_ -152.4   0.97352     0.380        2-3    0.36994 /_ -122.4   0.97352
   -      3      0.21358 /_   87.6   0.97352     0.380        3-1    0.36994 /_  117.6   0.97352
BT-TR4 .. 1      0.21357 /_  -32.4   0.97347     0.380        1-2    0.36992 /_   -2.4   0.97347
   -      2      0.21357 /_ -152.4   0.97347     0.380        2-3    0.36992 /_ -122.4   0.97347
   -      3      0.21357 /_   87.6   0.97347     0.380        3-1    0.36992 /_  117.6   0.97347
BT-TR5 .. 1      0.21352 /_  -32.4   0.97325     0.380        1-2    0.36983 /_   -2.4   0.97325
   -      2      0.21352 /_ -152.4   0.97325     0.380        2-3    0.36983 /_ -122.4   0.97325
   -      3      0.21352 /_   87.6   0.97325     0.380        3-1    0.36983 /_  117.6   0.97325
BT-TR6 .. 1      0.21379 /_  -32.4   0.97444     0.380        1-2    0.37029 /_   -2.4   0.97444
   -      2      0.21379 /_ -152.4   0.97444     0.380        2-3    0.37029 /_ -122.4   0.97444
   -      3      0.21379 /_   87.6   0.97444     0.380        3-1    0.37029 /_  117.6   0.97444
BT-TR7 .. 1      0.21397 /_  -32.4   0.97528     0.380        1-2    0.37061 /_   -2.4   0.97528
   -      2      0.21397 /_ -152.4   0.97528     0.380        2-3    0.37061 /_ -122.4   0.97528
   -      3      0.21397 /_   87.6   0.97528     0.380        3-1    0.37061 /_  117.6   0.97528
TR_ACOPL1 1      0.22334 /_    2.4     1.018     0.380        1-2    0.38683 /_   32.4     1.018
   -      2      0.22334 /_ -117.6     1.018     0.380        2-3    0.38683 /_  -87.6     1.018
   -      3      0.22334 /_  122.4     1.018     0.380        3-1    0.38683 /_  152.4     1.018
